FoamFile
{
    version     2.0;
    format      ascii;
    class       dictionary;
    object      surfaceFeatureExtractDict;
}
U3.obj { extractionMethod extractFromSurface; includedAngle 150; }
