/*--------------------------------*- C++ -*----------------------------------*\
| =========                 |                                                 |
| \\      /  F ield         | OpenFOAM: The Open Source CFD Toolbox           |
|  \\    /   O peration     | Version:  3.0.x                                 |
|   \\  /    A nd           | Web:      www.OpenFOAM.org                      |
|    \\/     M anipulation  |                                                 |
\*---------------------------------------------------------------------------*/
FoamFile
{
    version     2.0;
    format      ascii;
    class       dictionary;
    object      snappyHexMeshDict;
}
// * * * * * * * * * * * * * * * * * * * * * * * * * * * * * * * * * * * * * //

castellatedMesh true;
snap            true;
addLayers       true;

geometry
{
    RW.obj
    {
        type triSurfaceMesh; 
        name RW; 
    }

    refinementBox
    {
        type searchableBox;
        min (1.2 0.0 0.5); // Leggermente prima del profilo (X: 1.2, Z: 0.5)
        max (2.1 0.1 1.3); // Leggermente dopo e sopra (X: 2.1, Z: 1.3)
    }

    wake
    {
        type searchableBox;
        min (1.2 0.0 0.5); // Inizio zona ali
        max (6.0 0.1 1.5);  // Si estende verso outlet (X=5.0)
    }

}

castellatedMeshControls
{
    maxLocalCells 5000000;
    maxGlobalCells 10000000;
    minRefinementCells 10;
    maxLoadUnbalance 0.10;
    nCellsBetweenLevels 2;

    features ( { file "RW.eMesh"; level 4; } );

    refinementSurfaces
    {
        RW { level (4 5); patchInfo { type wall; } }
    }

    resolveFeatureAngle 30;

    refinementRegions
    {
       RW 
        { 
            mode distance; 
            levels 
            (  
                (0.01 5)  // vicino alla superficie
                (0.05 3)  // lontano dalla superficie
            );  
        }
    
        refinementBox
        {
            mode inside;
            levels ( (1.0 3) ); 
        }

        wake
        {
            mode inside;
            levels ( (1.0 2) ); 
        }
    }

    locationInMesh (2.0 0.002 0.05);
    allowFreeStandingZoneFaces true;
}

snapControls
{
    nSmoothPatch 3;
    tolerance 2.0;
    nSolveIter 30;
    nRelaxIter 5;
    nFeatureSnapIter 10;
    implicitFeatureSnap false;
    explicitFeatureSnap true;
    multiRegionFeatureSnap false;
}


addLayersControls
{
    relativeSizes true;
    layers { RW { nSurfaceLayers 6; } }
    expansionRatio 1.1;
    finalLayerThickness 0.2;
    minThickness 0.01;
    nGrow 0;
    featureAngle 60;
    slipFeatureAngle 30;
    nSmoothSurfaceNormals 1;
    nSmoothNormals 3;
    nSmoothThickness 10;
    maxFaceThicknessRatio 0.5;
    maxThicknessToMedialRatio 0.3;
    minMedialAxisAngle 90;
    nBufferCellsNoExtrude 0;
    nLayerIter 50;
    nRelaxIter 5;
}

meshQualityControls
{
    maxNonOrtho 65;
    maxBoundarySkewness 20;
    maxInternalSkewness 4;
    maxConcave 80;
    minVol 1e-13;
    minTetQuality 1e-30;
    minArea -1;
    minTwist 0.01;
    minDeterminant 0.001;
    minFaceWeight 0.02;
    minVolRatio 0.01;
    triangleTwist -1;
    nSmoothScale 4;
    errorReduction 0.75;
    minTriangleTwist -1;
}

writeFlags ( layerSets layerFields );
mergeTolerance 1e-3;


// ************************************************************************* //