/*--------------------------------*- C++ -*----------------------------------*\
| =========                 |                                                 |
| \\      /  F ield         | OpenFOAM: The Open Source CFD Toolbox           |
|  \\    /   O peration     | Version:  v2412                                 |
|   \\  /    A nd           | Website:  www.openfoam.com                      |
|    \\/     M anipulation  |                                                 |
\*---------------------------------------------------------------------------*/
FoamFile
{
    version     1.0;
    format      ascii;
    class       dictionary;
    object      topoSetDict;
}
// * * * * * * * * * * * * * * * * * * * * * * * * * * * * * * * * * * * * * //

actions
(
    // // F1 Zone
    // {
    //     name    c_F1;
    //     type    cellSet;
    //     action  new;
    //     source  boxToCell;
    //     box     (1.6 -0.1 0.7) (2.2 0.2 1.1);
    // }
    // {
    //     name    c_F1;
    //     type    cellZoneSet;
    //     action  new;
    //     source  setToCellZone;
    //     set     c_F1;
    // }

    // // F2 Zone
    // {
    //     name    c_F2;
    //     type    cellSet;
    //     action  new;
    //     source  boxToCell;
    //     box     (1.6 -0.1 0.8) (2.2 0.2 1.2);
    // }
    // {
    //     name    c_F2;
    //     type    cellZoneSet;
    //     action  new;
    //     source  setToCellZone;
    //     set     c_F2;
    // }

    // // U3 Zone
    // {
    //     name    c_U3;
    //     type    cellSet;
    //     action  new;
    //     source  boxToCell;
    //     box     (1.4 -0.1 0.8) (2.0 0.2 1.2);
    // }
    // {
    //     name    c_U3;
    //     type    cellZoneSet;
    //     action  new;
    //     source  setToCellZone;
    //     set     c_U3;
    // }

    {
        name c_U3;
        type cellSet;
        action new;
        source regionToCell;
        insidePoints ((1.455 -0.005 0.855));
    }

    // {
    //     name c_F1;
    //     type cellSet;
    //     action new;
    //     source regionToCell;
    //     insidePoints ((1.655 -0.005 0.8755));
    // }

    // {
    //     name c_F2;
    //     type cellSet;
    //     action new;
    //     source regionToCell;
    //     insidePoints ((1.755 -0.005 0.855));
    // }

    {
        name BGGrid;
        type cellSet;
        action new;
        source cellToCell;
        set c_U3; // sets (c_U3 c_F1 c_F2);
    }

    {
        name BGGrid;
        type cellSet;
        action invert;
    }
);



// ************************************************************************* //